# generated using pymatgen
data_Zn2H7C12O7
_symmetry_space_group_name_H-M   'P 1'
_cell_length_a   14.49880000
_cell_length_b   17.16590000
_cell_length_c   18.15360000
_cell_angle_alpha   90.00000000
_cell_angle_beta   90.00000000
_cell_angle_gamma   90.00000000
_symmetry_Int_Tables_number   1
_chemical_formula_structural   Zn2H7C12O7
_chemical_formula_sum   'Zn16 H56 C96 O56'
_cell_volume   4518.15784502
_cell_formula_units_Z   8
loop_
 _symmetry_equiv_pos_site_id
 _symmetry_equiv_pos_as_xyz
  1  'x, y, z'
loop_
 _atom_site_type_symbol
 _atom_site_label
 _atom_site_symmetry_multiplicity
 _atom_site_fract_x
 _atom_site_fract_y
 _atom_site_fract_z
 _atom_site_occupancy
  Zn  Zn0  1  0.44449000  0.93948000  0.45177000  1
  Zn  Zn1  1  0.65292000  0.94705000  0.39764000  1
  Zn  Zn2  1  0.55551000  0.43948000  0.04823000  1
  Zn  Zn3  1  0.34708000  0.44705000  0.10236000  1
  Zn  Zn4  1  0.55551000  0.06052000  0.54823000  1
  Zn  Zn5  1  0.34708000  0.05295000  0.60236000  1
  Zn  Zn6  1  0.44449000  0.56052000  0.95177000  1
  Zn  Zn7  1  0.65292000  0.55295000  0.89764000  1
  Zn  Zn8  1  0.05551000  0.06052000  0.95177000  1
  Zn  Zn9  1  0.84708000  0.05295000  0.89764000  1
  Zn  Zn10  1  0.94449000  0.56052000  0.54823000  1
  Zn  Zn11  1  0.15292000  0.55295000  0.60236000  1
  Zn  Zn12  1  0.94449000  0.93948000  0.04823000  1
  Zn  Zn13  1  0.15292000  0.94705000  0.10236000  1
  Zn  Zn14  1  0.05551000  0.43948000  0.45177000  1
  Zn  Zn15  1  0.84708000  0.44705000  0.39764000  1
  H  H16  1  0.60970000  0.92760000  0.52110000  1
  H  H17  1  0.36910000  0.12080000  0.30200000  1
  H  H18  1  0.33880000  0.23180000  0.23340000  1
  H  H19  1  0.59600000  0.22520000  0.15310000  1
  H  H20  1  0.62650000  0.11580000  0.22270000  1
  H  H21  1  0.93580000  0.89110000  0.55370000  1
  H  H22  1  0.92160000  0.06510000  0.40750000  1
  H  H23  1  0.39030000  0.42760000  0.97890000  1
  H  H24  1  0.63090000  0.62080000  0.19800000  1
  H  H25  1  0.66120000  0.73180000  0.26660000  1
  H  H26  1  0.40400000  0.72520000  0.34690000  1
  H  H27  1  0.37350000  0.61580000  0.27730000  1
  H  H28  1  0.06420000  0.39110000  0.94630000  1
  H  H29  1  0.07840000  0.56510000  0.09250000  1
  H  H30  1  0.39030000  0.07240000  0.47890000  1
  H  H31  1  0.63090000  0.87920000  0.69800000  1
  H  H32  1  0.66120000  0.76820000  0.76660000  1
  H  H33  1  0.40400000  0.77480000  0.84690000  1
  H  H34  1  0.37350000  0.88420000  0.77730000  1
  H  H35  1  0.06420000  0.10890000  0.44630000  1
  H  H36  1  0.07840000  0.93490000  0.59250000  1
  H  H37  1  0.60970000  0.57240000  0.02110000  1
  H  H38  1  0.36910000  0.37920000  0.80200000  1
  H  H39  1  0.33880000  0.26820000  0.73340000  1
  H  H40  1  0.59600000  0.27480000  0.65310000  1
  H  H41  1  0.62650000  0.38420000  0.72270000  1
  H  H42  1  0.93580000  0.60890000  0.05370000  1
  H  H43  1  0.92160000  0.43490000  0.90750000  1
  H  H44  1  0.89030000  0.07240000  0.02110000  1
  H  H45  1  0.13090000  0.87920000  0.80200000  1
  H  H46  1  0.16120000  0.76820000  0.73340000  1
  H  H47  1  0.90400000  0.77480000  0.65310000  1
  H  H48  1  0.87350000  0.88420000  0.72270000  1
  H  H49  1  0.56420000  0.10890000  0.05370000  1
  H  H50  1  0.57840000  0.93490000  0.90750000  1
  H  H51  1  0.10970000  0.57240000  0.47890000  1
  H  H52  1  0.86910000  0.37920000  0.69800000  1
  H  H53  1  0.83880000  0.26820000  0.76660000  1
  H  H54  1  0.09600000  0.27480000  0.84690000  1
  H  H55  1  0.12650000  0.38420000  0.77730000  1
  H  H56  1  0.43580000  0.60890000  0.44630000  1
  H  H57  1  0.42160000  0.43490000  0.59250000  1
  H  H58  1  0.10970000  0.92760000  0.97890000  1
  H  H59  1  0.86910000  0.12080000  0.19800000  1
  H  H60  1  0.83880000  0.23180000  0.26660000  1
  H  H61  1  0.09600000  0.22520000  0.34690000  1
  H  H62  1  0.12650000  0.11580000  0.27730000  1
  H  H63  1  0.43580000  0.89110000  0.94630000  1
  H  H64  1  0.42160000  0.06510000  0.09250000  1
  H  H65  1  0.89030000  0.42760000  0.52110000  1
  H  H66  1  0.13090000  0.62080000  0.30200000  1
  H  H67  1  0.16120000  0.73180000  0.23340000  1
  H  H68  1  0.90400000  0.72520000  0.15310000  1
  H  H69  1  0.87350000  0.61580000  0.22270000  1
  H  H70  1  0.56420000  0.39110000  0.55370000  1
  H  H71  1  0.57840000  0.56510000  0.40750000  1
  C  C72  1  0.52280000  0.04090000  0.32070000  1
  C  C73  1  0.50070000  0.10760000  0.27040000  1
  C  C74  1  0.41520000  0.14210000  0.27260000  1
  C  C75  1  0.39680000  0.20860000  0.23140000  1
  C  C76  1  0.46540000  0.24020000  0.18730000  1
  C  C77  1  0.55060000  0.20480000  0.18370000  1
  C  C78  1  0.56860000  0.13910000  0.22510000  1
  C  C79  1  0.44930000  0.31420000  0.14470000  1
  C  C80  1  0.81970000  0.94510000  0.45430000  1
  C  C81  1  0.91420000  0.97350000  0.47690000  1
  C  C82  1  0.96160000  0.93510000  0.53200000  1
  C  C83  1  0.95290000  0.03880000  0.44470000  1
  C  C84  1  0.47720000  0.54090000  0.17930000  1
  C  C85  1  0.49930000  0.60760000  0.22960000  1
  C  C86  1  0.58480000  0.64210000  0.22740000  1
  C  C87  1  0.60320000  0.70860000  0.26860000  1
  C  C88  1  0.53460000  0.74020000  0.31270000  1
  C  C89  1  0.44940000  0.70480000  0.31630000  1
  C  C90  1  0.43140000  0.63910000  0.27490000  1
  C  C91  1  0.55070000  0.81420000  0.35530000  1
  C  C92  1  0.18030000  0.44510000  0.04570000  1
  C  C93  1  0.08580000  0.47350000  0.02310000  1
  C  C94  1  0.03840000  0.43510000  0.96800000  1
  C  C95  1  0.04710000  0.53880000  0.05530000  1
  C  C96  1  0.47720000  0.95910000  0.67930000  1
  C  C97  1  0.49930000  0.89240000  0.72960000  1
  C  C98  1  0.58480000  0.85790000  0.72740000  1
  C  C99  1  0.60320000  0.79140000  0.76860000  1
  C  C100  1  0.53460000  0.75980000  0.81270000  1
  C  C101  1  0.44940000  0.79520000  0.81630000  1
  C  C102  1  0.43140000  0.86090000  0.77490000  1
  C  C103  1  0.55070000  0.68580000  0.85530000  1
  C  C104  1  0.18030000  0.05490000  0.54570000  1
  C  C105  1  0.08580000  0.02650000  0.52310000  1
  C  C106  1  0.03840000  0.06490000  0.46800000  1
  C  C107  1  0.04710000  0.96120000  0.55530000  1
  C  C108  1  0.52280000  0.45910000  0.82070000  1
  C  C109  1  0.50070000  0.39240000  0.77040000  1
  C  C110  1  0.41520000  0.35790000  0.77260000  1
  C  C111  1  0.39680000  0.29140000  0.73140000  1
  C  C112  1  0.46540000  0.25980000  0.68730000  1
  C  C113  1  0.55060000  0.29520000  0.68370000  1
  C  C114  1  0.56860000  0.36090000  0.72510000  1
  C  C115  1  0.44930000  0.18580000  0.64470000  1
  C  C116  1  0.81970000  0.55490000  0.95430000  1
  C  C117  1  0.91420000  0.52650000  0.97690000  1
  C  C118  1  0.96160000  0.56490000  0.03200000  1
  C  C119  1  0.95290000  0.46120000  0.94470000  1
  C  C120  1  0.97720000  0.95910000  0.82070000  1
  C  C121  1  0.99930000  0.89240000  0.77040000  1
  C  C122  1  0.08480000  0.85790000  0.77260000  1
  C  C123  1  0.10320000  0.79140000  0.73140000  1
  C  C124  1  0.03460000  0.75980000  0.68730000  1
  C  C125  1  0.94940000  0.79520000  0.68370000  1
  C  C126  1  0.93140000  0.86090000  0.72510000  1
  C  C127  1  0.05070000  0.68580000  0.64470000  1
  C  C128  1  0.68030000  0.05490000  0.95430000  1
  C  C129  1  0.58580000  0.02650000  0.97690000  1
  C  C130  1  0.53840000  0.06490000  0.03200000  1
  C  C131  1  0.54710000  0.96120000  0.94470000  1
  C  C132  1  0.02280000  0.45910000  0.67930000  1
  C  C133  1  0.00070000  0.39240000  0.72960000  1
  C  C134  1  0.91520000  0.35790000  0.72740000  1
  C  C135  1  0.89680000  0.29140000  0.76860000  1
  C  C136  1  0.96540000  0.25980000  0.81270000  1
  C  C137  1  0.05060000  0.29520000  0.81630000  1
  C  C138  1  0.06860000  0.36090000  0.77490000  1
  C  C139  1  0.94930000  0.18580000  0.85530000  1
  C  C140  1  0.31970000  0.55490000  0.54570000  1
  C  C141  1  0.41420000  0.52650000  0.52310000  1
  C  C142  1  0.46160000  0.56490000  0.46800000  1
  C  C143  1  0.45290000  0.46120000  0.55530000  1
  C  C144  1  0.02280000  0.04090000  0.17930000  1
  C  C145  1  0.00070000  0.10760000  0.22960000  1
  C  C146  1  0.91520000  0.14210000  0.22740000  1
  C  C147  1  0.89680000  0.20860000  0.26860000  1
  C  C148  1  0.96540000  0.24020000  0.31270000  1
  C  C149  1  0.05060000  0.20480000  0.31630000  1
  C  C150  1  0.06860000  0.13910000  0.27490000  1
  C  C151  1  0.94930000  0.31420000  0.35530000  1
  C  C152  1  0.31970000  0.94510000  0.04570000  1
  C  C153  1  0.41420000  0.97350000  0.02310000  1
  C  C154  1  0.46160000  0.93510000  0.96800000  1
  C  C155  1  0.45290000  0.03880000  0.05530000  1
  C  C156  1  0.97720000  0.54090000  0.32070000  1
  C  C157  1  0.99930000  0.60760000  0.27040000  1
  C  C158  1  0.08480000  0.64210000  0.27260000  1
  C  C159  1  0.10320000  0.70860000  0.23140000  1
  C  C160  1  0.03460000  0.74020000  0.18730000  1
  C  C161  1  0.94940000  0.70480000  0.18370000  1
  C  C162  1  0.93140000  0.63910000  0.22510000  1
  C  C163  1  0.05070000  0.81420000  0.14470000  1
  C  C164  1  0.68030000  0.44510000  0.45430000  1
  C  C165  1  0.58580000  0.47350000  0.47690000  1
  C  C166  1  0.53840000  0.43510000  0.53200000  1
  C  C167  1  0.54710000  0.53880000  0.44470000  1
  O  O168  1  0.58070000  0.96030000  0.48710000  1
  O  O169  1  0.45910000  0.01430000  0.35980000  1
  O  O170  1  0.60440000  0.01590000  0.32000000  1
  O  O171  1  0.51560000  0.34250000  0.11150000  1
  O  O172  1  0.36850000  0.34310000  0.14720000  1
  O  O173  1  0.78140000  0.98060000  0.40330000  1
  O  O174  1  0.78480000  0.88930000  0.48750000  1
  O  O175  1  0.41930000  0.46030000  0.01290000  1
  O  O176  1  0.54090000  0.51430000  0.14020000  1
  O  O177  1  0.39560000  0.51590000  0.18000000  1
  O  O178  1  0.48440000  0.84250000  0.38850000  1
  O  O179  1  0.63150000  0.84310000  0.35280000  1
  O  O180  1  0.21860000  0.48060000  0.09670000  1
  O  O181  1  0.21520000  0.38930000  0.01250000  1
  O  O182  1  0.41930000  0.03970000  0.51290000  1
  O  O183  1  0.54090000  0.98570000  0.64020000  1
  O  O184  1  0.39560000  0.98410000  0.68000000  1
  O  O185  1  0.48440000  0.65750000  0.88850000  1
  O  O186  1  0.63150000  0.65690000  0.85280000  1
  O  O187  1  0.21860000  0.01940000  0.59670000  1
  O  O188  1  0.21520000  0.11070000  0.51250000  1
  O  O189  1  0.58070000  0.53970000  0.98710000  1
  O  O190  1  0.45910000  0.48570000  0.85980000  1
  O  O191  1  0.60440000  0.48410000  0.82000000  1
  O  O192  1  0.51560000  0.15750000  0.61150000  1
  O  O193  1  0.36850000  0.15690000  0.64720000  1
  O  O194  1  0.78140000  0.51940000  0.90330000  1
  O  O195  1  0.78480000  0.61070000  0.98750000  1
  O  O196  1  0.91930000  0.03970000  0.98710000  1
  O  O197  1  0.04090000  0.98570000  0.85980000  1
  O  O198  1  0.89560000  0.98410000  0.82000000  1
  O  O199  1  0.98440000  0.65750000  0.61150000  1
  O  O200  1  0.13150000  0.65690000  0.64720000  1
  O  O201  1  0.71860000  0.01940000  0.90330000  1
  O  O202  1  0.71520000  0.11070000  0.98750000  1
  O  O203  1  0.08070000  0.53970000  0.51290000  1
  O  O204  1  0.95910000  0.48570000  0.64020000  1
  O  O205  1  0.10440000  0.48410000  0.68000000  1
  O  O206  1  0.01560000  0.15750000  0.88850000  1
  O  O207  1  0.86850000  0.15690000  0.85280000  1
  O  O208  1  0.28140000  0.51940000  0.59670000  1
  O  O209  1  0.28480000  0.61070000  0.51250000  1
  O  O210  1  0.08070000  0.96030000  0.01290000  1
  O  O211  1  0.95910000  0.01430000  0.14020000  1
  O  O212  1  0.10440000  0.01590000  0.18000000  1
  O  O213  1  0.01560000  0.34250000  0.38850000  1
  O  O214  1  0.86850000  0.34310000  0.35280000  1
  O  O215  1  0.28140000  0.98060000  0.09670000  1
  O  O216  1  0.28480000  0.88930000  0.01250000  1
  O  O217  1  0.91930000  0.46030000  0.48710000  1
  O  O218  1  0.04090000  0.51430000  0.35980000  1
  O  O219  1  0.89560000  0.51590000  0.32000000  1
  O  O220  1  0.98440000  0.84250000  0.11150000  1
  O  O221  1  0.13150000  0.84310000  0.14720000  1
  O  O222  1  0.71860000  0.48060000  0.40330000  1
  O  O223  1  0.71520000  0.38930000  0.48750000  1
