# generated using pymatgen
data_NaCu2(CO3)4
_symmetry_space_group_name_H-M   'P 1'
_cell_length_a   14.41130000
_cell_length_b   14.41130000
_cell_length_c   14.41130000
_cell_angle_alpha   90.00000000
_cell_angle_beta   90.00000000
_cell_angle_gamma   90.00000000
_symmetry_Int_Tables_number   1
_chemical_formula_structural   NaCu2(CO3)4
_chemical_formula_sum   'Na6 Cu12 C24 O72'
_cell_volume   2993.01902165
_cell_formula_units_Z   6
loop_
 _symmetry_equiv_pos_site_id
 _symmetry_equiv_pos_as_xyz
  1  'x, y, z'
loop_
 _atom_site_type_symbol
 _atom_site_label
 _atom_site_symmetry_multiplicity
 _atom_site_fract_x
 _atom_site_fract_y
 _atom_site_fract_z
 _atom_site_occupancy
  Na  Na0  1  0.50000000  0.50000000  0.00000000  1
  Na  Na1  1  0.00000000  0.00000000  0.50000000  1
  Na  Na2  1  0.00000000  0.50000000  0.50000000  1
  Na  Na3  1  0.50000000  0.00000000  0.00000000  1
  Na  Na4  1  0.50000000  0.00000000  0.50000000  1
  Na  Na5  1  0.00000000  0.50000000  0.00000000  1
  Cu  Cu6  1  0.50000000  0.75000000  0.00000000  1
  Cu  Cu7  1  0.50000000  0.25000000  0.00000000  1
  Cu  Cu8  1  0.00000000  0.50000000  0.75000000  1
  Cu  Cu9  1  0.00000000  0.50000000  0.25000000  1
  Cu  Cu10  1  0.75000000  0.00000000  0.50000000  1
  Cu  Cu11  1  0.25000000  0.00000000  0.50000000  1
  Cu  Cu12  1  0.75000000  0.50000000  0.00000000  1
  Cu  Cu13  1  0.25000000  0.50000000  0.00000000  1
  Cu  Cu14  1  0.50000000  0.00000000  0.25000000  1
  Cu  Cu15  1  0.50000000  0.00000000  0.75000000  1
  Cu  Cu16  1  0.00000000  0.75000000  0.50000000  1
  Cu  Cu17  1  0.00000000  0.25000000  0.50000000  1
  C  C18  1  0.66630000  0.66630000  0.00000000  1
  C  C19  1  0.16630000  0.16630000  0.50000000  1
  C  C20  1  0.33370000  0.33370000  0.00000000  1
  C  C21  1  0.83370000  0.83370000  0.50000000  1
  C  C22  1  0.33370000  0.66630000  0.00000000  1
  C  C23  1  0.83370000  0.16630000  0.50000000  1
  C  C24  1  0.66630000  0.33370000  0.00000000  1
  C  C25  1  0.16630000  0.83370000  0.50000000  1
  C  C26  1  0.00000000  0.66630000  0.66630000  1
  C  C27  1  0.50000000  0.16630000  0.16630000  1
  C  C28  1  0.00000000  0.33370000  0.33370000  1
  C  C29  1  0.50000000  0.83370000  0.83370000  1
  C  C30  1  0.00000000  0.33370000  0.66630000  1
  C  C31  1  0.50000000  0.83370000  0.16630000  1
  C  C32  1  0.00000000  0.66630000  0.33370000  1
  C  C33  1  0.50000000  0.16630000  0.83370000  1
  C  C34  1  0.66630000  0.00000000  0.66630000  1
  C  C35  1  0.16630000  0.50000000  0.16630000  1
  C  C36  1  0.33370000  0.00000000  0.33370000  1
  C  C37  1  0.83370000  0.50000000  0.83370000  1
  C  C38  1  0.66630000  0.00000000  0.33370000  1
  C  C39  1  0.16630000  0.50000000  0.83370000  1
  C  C40  1  0.33370000  0.00000000  0.66630000  1
  C  C41  1  0.83370000  0.50000000  0.16630000  1
  O  O42  1  0.60490000  0.60490000  0.00000000  1
  O  O43  1  0.10490000  0.10490000  0.50000000  1
  O  O44  1  0.39510000  0.39510000  0.00000000  1
  O  O45  1  0.89510000  0.89510000  0.50000000  1
  O  O46  1  0.39510000  0.60490000  0.00000000  1
  O  O47  1  0.89510000  0.10490000  0.50000000  1
  O  O48  1  0.60490000  0.39510000  0.00000000  1
  O  O49  1  0.10490000  0.89510000  0.50000000  1
  O  O50  1  0.00000000  0.60490000  0.60490000  1
  O  O51  1  0.50000000  0.10490000  0.10490000  1
  O  O52  1  0.00000000  0.39510000  0.39510000  1
  O  O53  1  0.50000000  0.89510000  0.89510000  1
  O  O54  1  0.00000000  0.39510000  0.60490000  1
  O  O55  1  0.50000000  0.89510000  0.10490000  1
  O  O56  1  0.00000000  0.60490000  0.39510000  1
  O  O57  1  0.50000000  0.10490000  0.89510000  1
  O  O58  1  0.60490000  0.00000000  0.60490000  1
  O  O59  1  0.10490000  0.50000000  0.10490000  1
  O  O60  1  0.39510000  0.00000000  0.39510000  1
  O  O61  1  0.89510000  0.50000000  0.89510000  1
  O  O62  1  0.60490000  0.00000000  0.39510000  1
  O  O63  1  0.10490000  0.50000000  0.89510000  1
  O  O64  1  0.39510000  0.00000000  0.60490000  1
  O  O65  1  0.89510000  0.50000000  0.10490000  1
  O  O66  1  0.64180000  0.75230000  0.00000000  1
  O  O67  1  0.14180000  0.25230000  0.50000000  1
  O  O68  1  0.35820000  0.24770000  0.00000000  1
  O  O69  1  0.85820000  0.74770000  0.50000000  1
  O  O70  1  0.35820000  0.75230000  0.00000000  1
  O  O71  1  0.85820000  0.25230000  0.50000000  1
  O  O72  1  0.64180000  0.24770000  0.00000000  1
  O  O73  1  0.14180000  0.74770000  0.50000000  1
  O  O74  1  0.00000000  0.64180000  0.75230000  1
  O  O75  1  0.50000000  0.14180000  0.25230000  1
  O  O76  1  0.00000000  0.35820000  0.24770000  1
  O  O77  1  0.50000000  0.85820000  0.74770000  1
  O  O78  1  0.00000000  0.35820000  0.75230000  1
  O  O79  1  0.50000000  0.85820000  0.25230000  1
  O  O80  1  0.00000000  0.64180000  0.24770000  1
  O  O81  1  0.50000000  0.14180000  0.74770000  1
  O  O82  1  0.75230000  0.00000000  0.64180000  1
  O  O83  1  0.25230000  0.50000000  0.14180000  1
  O  O84  1  0.24770000  0.00000000  0.35820000  1
  O  O85  1  0.74770000  0.50000000  0.85820000  1
  O  O86  1  0.75230000  0.00000000  0.35820000  1
  O  O87  1  0.25230000  0.50000000  0.85820000  1
  O  O88  1  0.24770000  0.00000000  0.64180000  1
  O  O89  1  0.74770000  0.50000000  0.14180000  1
  O  O90  1  0.75230000  0.64180000  0.00000000  1
  O  O91  1  0.25230000  0.14180000  0.50000000  1
  O  O92  1  0.24770000  0.35820000  0.00000000  1
  O  O93  1  0.74770000  0.85820000  0.50000000  1
  O  O94  1  0.75230000  0.35820000  0.00000000  1
  O  O95  1  0.25230000  0.85820000  0.50000000  1
  O  O96  1  0.24770000  0.64180000  0.00000000  1
  O  O97  1  0.74770000  0.14180000  0.50000000  1
  O  O98  1  0.64180000  0.00000000  0.24770000  1
  O  O99  1  0.14180000  0.50000000  0.74770000  1
  O  O100  1  0.35820000  0.00000000  0.75230000  1
  O  O101  1  0.85820000  0.50000000  0.25230000  1
  O  O102  1  0.35820000  0.00000000  0.24770000  1
  O  O103  1  0.85820000  0.50000000  0.74770000  1
  O  O104  1  0.64180000  0.00000000  0.75230000  1
  O  O105  1  0.14180000  0.50000000  0.25230000  1
  O  O106  1  0.00000000  0.75230000  0.35820000  1
  O  O107  1  0.50000000  0.25230000  0.85820000  1
  O  O108  1  0.00000000  0.24770000  0.64180000  1
  O  O109  1  0.50000000  0.74770000  0.14180000  1
  O  O110  1  0.00000000  0.75230000  0.64180000  1
  O  O111  1  0.50000000  0.25230000  0.14180000  1
  O  O112  1  0.00000000  0.24770000  0.35820000  1
  O  O113  1  0.50000000  0.74770000  0.85820000  1
