# generated using pymatgen
data_MnC12(N3O4)3
_symmetry_space_group_name_H-M   'P 1'
_cell_length_a   10.23040000
_cell_length_b   10.23040000
_cell_length_c   10.23040000
_cell_angle_alpha   90.00000000
_cell_angle_beta   90.00000000
_cell_angle_gamma   90.00000000
_symmetry_Int_Tables_number   1
_chemical_formula_structural   MnC12(N3O4)3
_chemical_formula_sum   'Mn4 C48 N36 O48'
_cell_volume   1070.72475539
_cell_formula_units_Z   4
loop_
 _symmetry_equiv_pos_site_id
 _symmetry_equiv_pos_as_xyz
  1  'x, y, z'
loop_
 _atom_site_type_symbol
 _atom_site_label
 _atom_site_symmetry_multiplicity
 _atom_site_fract_x
 _atom_site_fract_y
 _atom_site_fract_z
 _atom_site_occupancy
  Mn  Mn0  1  0.62599000  0.87401000  0.12599000  1
  Mn  Mn1  1  0.87401000  0.12599000  0.62599000  1
  Mn  Mn2  1  0.37401000  0.37401000  0.37401000  1
  Mn  Mn3  1  0.12599000  0.62599000  0.87401000  1
  C  C4  1  0.36400000  0.76300000  0.98000000  1
  C  C5  1  0.33050000  0.64700000  0.06040000  1
  C  C6  1  0.40200000  0.67020000  0.10970000  1
  C  C7  1  0.39000000  0.76800000  0.00300000  1
  C  C8  1  0.13600000  0.23700000  0.48000000  1
  C  C9  1  0.16950000  0.35300000  0.56040000  1
  C  C10  1  0.09800000  0.32980000  0.60970000  1
  C  C11  1  0.11000000  0.23200000  0.50300000  1
  C  C12  1  0.63600000  0.26300000  0.52000000  1
  C  C13  1  0.66950000  0.14700000  0.43960000  1
  C  C14  1  0.59800000  0.17020000  0.39030000  1
  C  C15  1  0.61000000  0.26800000  0.49700000  1
  C  C16  1  0.86400000  0.73700000  0.02000000  1
  C  C17  1  0.83050000  0.85300000  0.93960000  1
  C  C18  1  0.90200000  0.82980000  0.89030000  1
  C  C19  1  0.89000000  0.73200000  0.99700000  1
  C  C20  1  0.98000000  0.36400000  0.76300000  1
  C  C21  1  0.06040000  0.33050000  0.64700000  1
  C  C22  1  0.10970000  0.40200000  0.67020000  1
  C  C23  1  0.00300000  0.39000000  0.76800000  1
  C  C24  1  0.48000000  0.13600000  0.23700000  1
  C  C25  1  0.56040000  0.16950000  0.35300000  1
  C  C26  1  0.60970000  0.09800000  0.32980000  1
  C  C27  1  0.50300000  0.11000000  0.23200000  1
  C  C28  1  0.52000000  0.63600000  0.26300000  1
  C  C29  1  0.43960000  0.66950000  0.14700000  1
  C  C30  1  0.39030000  0.59800000  0.17020000  1
  C  C31  1  0.49700000  0.61000000  0.26800000  1
  C  C32  1  0.02000000  0.86400000  0.73700000  1
  C  C33  1  0.93960000  0.83050000  0.85300000  1
  C  C34  1  0.89030000  0.90200000  0.82980000  1
  C  C35  1  0.99700000  0.89000000  0.73200000  1
  C  C36  1  0.76300000  0.98000000  0.36400000  1
  C  C37  1  0.64700000  0.06040000  0.33050000  1
  C  C38  1  0.67020000  0.10970000  0.40200000  1
  C  C39  1  0.76800000  0.00300000  0.39000000  1
  C  C40  1  0.23700000  0.48000000  0.13600000  1
  C  C41  1  0.35300000  0.56040000  0.16950000  1
  C  C42  1  0.32980000  0.60970000  0.09800000  1
  C  C43  1  0.23200000  0.50300000  0.11000000  1
  C  C44  1  0.26300000  0.52000000  0.63600000  1
  C  C45  1  0.14700000  0.43960000  0.66950000  1
  C  C46  1  0.17020000  0.39030000  0.59800000  1
  C  C47  1  0.26800000  0.49700000  0.61000000  1
  C  C48  1  0.73700000  0.02000000  0.86400000  1
  C  C49  1  0.85300000  0.93960000  0.83050000  1
  C  C50  1  0.82980000  0.89030000  0.90200000  1
  C  C51  1  0.73200000  0.99700000  0.89000000  1
  N  N52  1  0.46490000  0.77150000  0.06710000  1
  N  N53  1  0.37500000  0.77400000  0.97430000  1
  N  N54  1  0.29210000  0.67700000  0.99080000  1
  N  N55  1  0.03510000  0.22850000  0.56710000  1
  N  N56  1  0.12500000  0.22600000  0.47430000  1
  N  N57  1  0.20790000  0.32300000  0.49080000  1
  N  N58  1  0.53510000  0.27150000  0.43290000  1
  N  N59  1  0.62500000  0.27400000  0.52570000  1
  N  N60  1  0.70790000  0.17700000  0.50920000  1
  N  N61  1  0.96490000  0.72850000  0.93290000  1
  N  N62  1  0.87500000  0.72600000  0.02570000  1
  N  N63  1  0.79210000  0.82300000  0.00920000  1
  N  N64  1  0.06710000  0.46490000  0.77150000  1
  N  N65  1  0.97430000  0.37500000  0.77400000  1
  N  N66  1  0.99080000  0.29210000  0.67700000  1
  N  N67  1  0.56710000  0.03510000  0.22850000  1
  N  N68  1  0.47430000  0.12500000  0.22600000  1
  N  N69  1  0.49080000  0.20790000  0.32300000  1
  N  N70  1  0.43290000  0.53510000  0.27150000  1
  N  N71  1  0.52570000  0.62500000  0.27400000  1
  N  N72  1  0.50920000  0.70790000  0.17700000  1
  N  N73  1  0.93290000  0.96490000  0.72850000  1
  N  N74  1  0.02570000  0.87500000  0.72600000  1
  N  N75  1  0.00920000  0.79210000  0.82300000  1
  N  N76  1  0.77150000  0.06710000  0.46490000  1
  N  N77  1  0.77400000  0.97430000  0.37500000  1
  N  N78  1  0.67700000  0.99080000  0.29210000  1
  N  N79  1  0.22850000  0.56710000  0.03510000  1
  N  N80  1  0.22600000  0.47430000  0.12500000  1
  N  N81  1  0.32300000  0.49080000  0.20790000  1
  N  N82  1  0.27150000  0.43290000  0.53510000  1
  N  N83  1  0.27400000  0.52570000  0.62500000  1
  N  N84  1  0.17700000  0.50920000  0.70790000  1
  N  N85  1  0.72850000  0.93290000  0.96490000  1
  N  N86  1  0.72600000  0.02570000  0.87500000  1
  N  N87  1  0.82300000  0.00920000  0.79210000  1
  O  O88  1  0.28100000  0.77200000  0.89000000  1
  O  O89  1  0.45200000  0.84900000  0.99300000  1
  O  O90  1  0.29900000  0.77700000  0.92300000  1
  O  O91  1  0.50700000  0.79000000  0.98000000  1
  O  O92  1  0.21900000  0.22800000  0.39000000  1
  O  O93  1  0.04800000  0.15100000  0.49300000  1
  O  O94  1  0.20100000  0.22300000  0.42300000  1
  O  O95  1  0.99300000  0.21000000  0.48000000  1
  O  O96  1  0.71900000  0.27200000  0.61000000  1
  O  O97  1  0.54800000  0.34900000  0.50700000  1
  O  O98  1  0.70100000  0.27700000  0.57700000  1
  O  O99  1  0.49300000  0.29000000  0.52000000  1
  O  O100  1  0.78100000  0.72800000  0.11000000  1
  O  O101  1  0.95200000  0.65100000  0.00700000  1
  O  O102  1  0.79900000  0.72300000  0.07700000  1
  O  O103  1  0.00700000  0.71000000  0.02000000  1
  O  O104  1  0.89000000  0.28100000  0.77200000  1
  O  O105  1  0.99300000  0.45200000  0.84900000  1
  O  O106  1  0.92300000  0.29900000  0.77700000  1
  O  O107  1  0.98000000  0.50700000  0.79000000  1
  O  O108  1  0.39000000  0.21900000  0.22800000  1
  O  O109  1  0.49300000  0.04800000  0.15100000  1
  O  O110  1  0.42300000  0.20100000  0.22300000  1
  O  O111  1  0.48000000  0.99300000  0.21000000  1
  O  O112  1  0.61000000  0.71900000  0.27200000  1
  O  O113  1  0.50700000  0.54800000  0.34900000  1
  O  O114  1  0.57700000  0.70100000  0.27700000  1
  O  O115  1  0.52000000  0.49300000  0.29000000  1
  O  O116  1  0.11000000  0.78100000  0.72800000  1
  O  O117  1  0.00700000  0.95200000  0.65100000  1
  O  O118  1  0.07700000  0.79900000  0.72300000  1
  O  O119  1  0.02000000  0.00700000  0.71000000  1
  O  O120  1  0.77200000  0.89000000  0.28100000  1
  O  O121  1  0.84900000  0.99300000  0.45200000  1
  O  O122  1  0.77700000  0.92300000  0.29900000  1
  O  O123  1  0.79000000  0.98000000  0.50700000  1
  O  O124  1  0.22800000  0.39000000  0.21900000  1
  O  O125  1  0.15100000  0.49300000  0.04800000  1
  O  O126  1  0.22300000  0.42300000  0.20100000  1
  O  O127  1  0.21000000  0.48000000  0.99300000  1
  O  O128  1  0.27200000  0.61000000  0.71900000  1
  O  O129  1  0.34900000  0.50700000  0.54800000  1
  O  O130  1  0.27700000  0.57700000  0.70100000  1
  O  O131  1  0.29000000  0.52000000  0.49300000  1
  O  O132  1  0.72800000  0.11000000  0.78100000  1
  O  O133  1  0.65100000  0.00700000  0.95200000  1
  O  O134  1  0.72300000  0.07700000  0.79900000  1
  O  O135  1  0.71000000  0.02000000  0.00700000  1
