# generated using pymatgen
data_ZnCu(C4N)4
_symmetry_space_group_name_H-M   'P 1'
_cell_length_a   11.77100000
_cell_length_b   11.77100000
_cell_length_c   11.77100000
_cell_angle_alpha   90.00000000
_cell_angle_beta   90.00000000
_cell_angle_gamma   90.00000000
_symmetry_Int_Tables_number   1
_chemical_formula_structural   ZnCu(C4N)4
_chemical_formula_sum   'Zn4 Cu4 C64 N16'
_cell_volume   1630.94786701
_cell_formula_units_Z   4
loop_
 _symmetry_equiv_pos_site_id
 _symmetry_equiv_pos_as_xyz
  1  'x, y, z'
loop_
 _atom_site_type_symbol
 _atom_site_label
 _atom_site_symmetry_multiplicity
 _atom_site_fract_x
 _atom_site_fract_y
 _atom_site_fract_z
 _atom_site_occupancy
  Zn  Zn0  1  0.25000000  0.25000000  0.25000000  1
  Zn  Zn1  1  0.75000000  0.75000000  0.25000000  1
  Zn  Zn2  1  0.75000000  0.25000000  0.75000000  1
  Zn  Zn3  1  0.25000000  0.75000000  0.75000000  1
  Cu  Cu4  1  0.00000000  0.00000000  0.00000000  1
  Cu  Cu5  1  0.00000000  0.50000000  0.50000000  1
  Cu  Cu6  1  0.50000000  0.00000000  0.50000000  1
  Cu  Cu7  1  0.50000000  0.50000000  0.00000000  1
  C  C8  1  0.09400000  0.09400000  0.09400000  1
  C  C9  1  0.09400000  0.59400000  0.59400000  1
  C  C10  1  0.59400000  0.09400000  0.59400000  1
  C  C11  1  0.59400000  0.59400000  0.09400000  1
  C  C12  1  0.90600000  0.90600000  0.09400000  1
  C  C13  1  0.90600000  0.40600000  0.59400000  1
  C  C14  1  0.40600000  0.90600000  0.59400000  1
  C  C15  1  0.40600000  0.40600000  0.09400000  1
  C  C16  1  0.90600000  0.09400000  0.90600000  1
  C  C17  1  0.90600000  0.59400000  0.40600000  1
  C  C18  1  0.40600000  0.09400000  0.40600000  1
  C  C19  1  0.40600000  0.59400000  0.90600000  1
  C  C20  1  0.09400000  0.90600000  0.90600000  1
  C  C21  1  0.09400000  0.40600000  0.40600000  1
  C  C22  1  0.59400000  0.90600000  0.40600000  1
  C  C23  1  0.59400000  0.40600000  0.90600000  1
  C  C24  1  0.92900000  0.92900000  0.04290000  1
  C  C25  1  0.92900000  0.42900000  0.54290000  1
  C  C26  1  0.42900000  0.92900000  0.54290000  1
  C  C27  1  0.42900000  0.42900000  0.04290000  1
  C  C28  1  0.07100000  0.07100000  0.04290000  1
  C  C29  1  0.07100000  0.57100000  0.54290000  1
  C  C30  1  0.57100000  0.07100000  0.54290000  1
  C  C31  1  0.57100000  0.57100000  0.04290000  1
  C  C32  1  0.07100000  0.92900000  0.95710000  1
  C  C33  1  0.07100000  0.42900000  0.45710000  1
  C  C34  1  0.57100000  0.92900000  0.45710000  1
  C  C35  1  0.57100000  0.42900000  0.95710000  1
  C  C36  1  0.92900000  0.07100000  0.95710000  1
  C  C37  1  0.92900000  0.57100000  0.45710000  1
  C  C38  1  0.42900000  0.07100000  0.45710000  1
  C  C39  1  0.42900000  0.57100000  0.95710000  1
  C  C40  1  0.04290000  0.92900000  0.92900000  1
  C  C41  1  0.04290000  0.42900000  0.42900000  1
  C  C42  1  0.54290000  0.92900000  0.42900000  1
  C  C43  1  0.54290000  0.42900000  0.92900000  1
  C  C44  1  0.04290000  0.07100000  0.07100000  1
  C  C45  1  0.04290000  0.57100000  0.57100000  1
  C  C46  1  0.54290000  0.07100000  0.57100000  1
  C  C47  1  0.54290000  0.57100000  0.07100000  1
  C  C48  1  0.95710000  0.07100000  0.92900000  1
  C  C49  1  0.95710000  0.57100000  0.42900000  1
  C  C50  1  0.45710000  0.07100000  0.42900000  1
  C  C51  1  0.45710000  0.57100000  0.92900000  1
  C  C52  1  0.95710000  0.92900000  0.07100000  1
  C  C53  1  0.95710000  0.42900000  0.57100000  1
  C  C54  1  0.45710000  0.92900000  0.57100000  1
  C  C55  1  0.45710000  0.42900000  0.07100000  1
  C  C56  1  0.92900000  0.04290000  0.92900000  1
  C  C57  1  0.92900000  0.54290000  0.42900000  1
  C  C58  1  0.42900000  0.04290000  0.42900000  1
  C  C59  1  0.42900000  0.54290000  0.92900000  1
  C  C60  1  0.07100000  0.04290000  0.07100000  1
  C  C61  1  0.07100000  0.54290000  0.57100000  1
  C  C62  1  0.57100000  0.04290000  0.57100000  1
  C  C63  1  0.57100000  0.54290000  0.07100000  1
  C  C64  1  0.92900000  0.95710000  0.07100000  1
  C  C65  1  0.92900000  0.45710000  0.57100000  1
  C  C66  1  0.42900000  0.95710000  0.57100000  1
  C  C67  1  0.42900000  0.45710000  0.07100000  1
  C  C68  1  0.07100000  0.95710000  0.92900000  1
  C  C69  1  0.07100000  0.45710000  0.42900000  1
  C  C70  1  0.57100000  0.95710000  0.42900000  1
  C  C71  1  0.57100000  0.45710000  0.92900000  1
  N  N72  1  0.15000000  0.15000000  0.15000000  1
  N  N73  1  0.15000000  0.65000000  0.65000000  1
  N  N74  1  0.65000000  0.15000000  0.65000000  1
  N  N75  1  0.65000000  0.65000000  0.15000000  1
  N  N76  1  0.85000000  0.85000000  0.15000000  1
  N  N77  1  0.85000000  0.35000000  0.65000000  1
  N  N78  1  0.35000000  0.85000000  0.65000000  1
  N  N79  1  0.35000000  0.35000000  0.15000000  1
  N  N80  1  0.85000000  0.15000000  0.85000000  1
  N  N81  1  0.85000000  0.65000000  0.35000000  1
  N  N82  1  0.35000000  0.15000000  0.35000000  1
  N  N83  1  0.35000000  0.65000000  0.85000000  1
  N  N84  1  0.15000000  0.85000000  0.85000000  1
  N  N85  1  0.15000000  0.35000000  0.35000000  1
  N  N86  1  0.65000000  0.85000000  0.35000000  1
  N  N87  1  0.65000000  0.35000000  0.85000000  1
