# generated using pymatgen
data_LiH5C5N2O5
_symmetry_space_group_name_H-M   P1
_cell_length_a   4.98086422
_cell_length_b   5.26880671
_cell_length_c   6.78109326
_cell_angle_alpha   90.21819738
_cell_angle_beta   102.93816923
_cell_angle_gamma   99.57614598
_symmetry_Int_Tables_number   1
_chemical_formula_structural   LiH5C5N2O5
_chemical_formula_sum   'Li1 H5 C5 N2 O5'
_cell_volume   170.86676659
_cell_formula_units_Z   1
loop_
 _symmetry_equiv_pos_site_id
 _symmetry_equiv_pos_as_xyz
  1  'x, y, z'
loop_
 _atom_site_type_symbol
 _atom_site_label
 _atom_site_symmetry_multiplicity
 _atom_site_fract_x
 _atom_site_fract_y
 _atom_site_fract_z
 _atom_site_occupancy
  Li  Li0  1  0.97752454  0.02589220  0.77856610  1
  H  H1  1  0.00776529  0.46400080  0.06503489  1
  H  H2  1  0.47631078  0.61359365  0.66784409  1
  H  H3  1  0.53621328  0.92931426  0.90858213  1
  H  H4  1  0.66502837  0.05796313  0.31895499  1
  H  H5  1  0.75308233  0.77730026  0.03101094  1
  C  C6  1  0.05764008  0.75663695  0.42359212  1
  C  C7  1  0.17151438  0.42742157  0.19170538  1
  C  C8  1  0.22223394  0.55523968  0.37516591  1
  C  C9  1  0.33834022  0.23838138  0.16372426  1
  C  C10  1  0.59745502  0.32913475  0.51617956  1
  N  N11  1  0.42977737  0.50601398  0.53162441  1
  N  N12  1  0.54162476  0.19772923  0.33086622  1
  O  O13  1  0.13879132  0.85988035  0.59887739  1
  O  O14  1  0.30760194  0.11153985  0.00028422  1
  O  O15  1  0.67715728  0.82475279  0.88986763  1
  O  O16  1  0.78874138  0.29211909  0.65955275  1
  O  O17  1  0.85259019  0.80117430  0.28666044  1
